<routes xmlns:xsi="http://www.w3.org/2001/XMLSchema-instance" xsi:noNamespaceSchemaLocation="http://sumo.dlr.de/xsd/routes_file.xsd">
    <route id="C7810510" edges="296903019#0 296903019#1 296903019#2 548596189 548596191 262071954 260320960#0 260320960#2 542954376 24303040#0 24303040#1 24303040#2 376574742#0 376574742#1 376574742#3 410942555#0 -376574743 344742907#0 410877035 350202610#0 350202610#1 350202610#2 355361279 -262072001 -260320959 -466518240#1 -466518240#0 -235326648#0 -545327335 -1214771012 -235899589#1 -235899589#0 -15006045#1 -271004890 -1021764192 -1021764191 -1021764188#3 -1021764188#2 -1021764188#1 -1021764188#0 -1021764190#2 -1021764190#1 -1021764190#0 -1185360889#0 -395173408#2 -395173408#1 -395173408#0 -235899586#1 -395173407 -504131741#1">
        <stop busStop="C7810510.5" duration="10" until="0" /> 
        <stop busStop="C7810510.6" duration="10" until="60" /> 
        <stop busStop="C7810510.7" duration="10" until="120" /> 
        <stop busStop="C7810510.8" duration="10" until="180" /> 
        <stop busStop="C7810510.9" duration="10" until="180" /> 
        <stop busStop="C7810510.10" duration="10" until="300" /> 
        <stop busStop="C7810510.11" duration="10" until="360" /> 
    </route>
    <route id="C78105101" edges="1021764184 504131741#1 395173407 235899586#1 395173408#0 395173408#1 395173408#2 1185360889#0 1021764190#0 1021764190#1 1021764190#2 1021764190#3 1021764188#1 1021764188#2 1021764188#3 1021764191 1021764192 271004890 15006045#0 235899589#0 235899589#1 1214771012 545327335 235326648#0 466518240#0 466518240#1 370634075 262072001 34879391 323078067#0 323078067#2 323078067#3 39621990 390446271 1105018467 -410942555#0 -376574742#3 -376574742#2 -376574742#0 -418663546 -24303040#1 -24303040#0 -542954376 -260320960#2 -260320960#1 -262071954 -971628172 -548596189 -296903019#2 -296903019#1 -296903019#0">
        <stop busStop="C78105101.2" duration="10" until="0" /> 
        <stop busStop="C78105101.3" duration="10" until="60" /> 
        <stop busStop="C78105101.4" duration="10" until="180" /> 
        <stop busStop="C78105101.5" duration="10" until="240" /> 
        <stop busStop="C78105101.6" duration="10" until="360" /> 
        <stop busStop="C78105101.7" duration="10" until="420" /> 
        <stop busStop="C78105101.8" duration="10" until="480" /> 
        <stop busStop="C78105101.9" duration="10" until="540" /> 
    </route>
    <route id="C78105436.trimmed" edges="-545327335 -1214771012 -235899589#1 -235899589#0 -15006045#1 -271004890 -1021764192 -1021764191 -1021764188#3 -1021764188#2 -1021764188#1 -1021764188#0 -1021764190#2 -1021764190#1 -1021764190#0 -1185360889#0 -395173408#2 -395173408#1 -395173408#0 -235899586#1 -395173407 -504131741#1">
        <stop busStop="C7810510.8" duration="10" until="0" /> 
        <stop busStop="C7810510.9" duration="10" until="0" /> 
        <stop busStop="C7810510.10" duration="10" until="120" /> 
        <stop busStop="C7810510.11" duration="10" until="180" /> 
    </route>
    <route id="C7785710" edges="552371812 552371811#1 24771859#0 24771859#1 24771909#0 24771909#1">
        <stop busStop="C7785710.4" duration="10" until="0" /> 
        <stop busStop="C7785710.5" duration="10" until="60" /> 
    </route>
    <route id="C778571002" edges="-24771909#1 -24771909#0 24771861#1 24771861#2 -552371811#1">
        <stop busStop="C778571002.1" duration="10" until="0" /> 
        <stop busStop="C778571002.2" duration="10" until="60" /> 
        <stop busStop="C778571002.3" duration="10" until="120" /> 
    </route>
    <route id="C714201" edges="1233863129 315059053 39621951#1 55814662#1 44418919">
        <stop busStop="C714201.8" duration="10" until="0" /> 
        <stop busStop="C714201.9" duration="10" until="60" /> 
    </route>
    <route id="C71420117" edges="-55814662#0 -315059053 -1233863129">
        <stop busStop="C71420117.0" duration="10" until="0" /> 
        <stop busStop="C71420117.1" duration="10" until="60" /> 
    </route>
    <route id="C73119292" edges="1233863129 315059053 39621951#1 55814662#1 44418919">
        <stop busStop="C714201.8" duration="10" until="0" /> 
        <stop busStop="C714201.9" duration="10" until="60" /> 
    </route>
    <route id="C7311931" edges="-55814662#0 -315059053 -1233863129">
        <stop busStop="C71420117.0" duration="10" until="0" /> 
        <stop busStop="C71420117.1" duration="10" until="60" /> 
    </route>
    <route id="C7784112474" edges="742520298#3 963987209#0 963987209#1 948499338#1 -857501710 -94885901#1 -94885901#0 -668087049 -25496998#1 -25496998#0 25496999#0 25496999#1 25496999#2 25496999#3 -363628728#4 -363628728#3 -363628728#2 -363628728#1 -363628728#0 -710531847 -363628729#1 -363628729#0 -44418909#2 -44418909#1 -44418909#0 -710531848 53864763 1176083116 288117242#1 22773581#0 22773581#1 384788386#0 384788386#1 -292314093#4 -292314093#0 -710531849 -858045129 -16105282 -858045130 -710531850 -545327323#2 -545327323#1 -545327323#0 -878748703 -710531853 -106653934 -710531855#3 -710531855#2 -710531855#1 -710531855#0 -710531857 -106653932 -208846939#5 -208846939#4 -208846939#2 -208846939#1 -208846939#0 -647051335 -187785191#1 -187785191#0 -1225331317 -44418908#2 710531864#0 16104654#0 710531865#0 710531865#1 710531865#2 710531865#3 710531867#0 710531867#1 710531867#2 114067941#0 114067941#1 114067941#2 114067941#3 114067941#4 44418913 114067991#0 904662435 54724006#0 54724006#1 904662438#0 904662438#1 729258755 22804188#0 22804188#2 903794192 904662439 729258754 44418911#0 44418911#1 541318512 576448391#0 576448391#1 576448391#2 576448391#3 576448388 548596186#0 15005059#0 733025085#17 733025083 15009576 542954378#0 542954378#1 542954378#2 263642304#0 39621951#1">
        <stop busStop="C7784112474.0" duration="10" until="0" /> 
        <stop busStop="C7784112474.1" duration="10" until="0" /> 
        <stop busStop="C7784112474.2" duration="10" until="60" /> 
        <stop busStop="C7784112474.3" duration="10" until="60" /> 
        <stop busStop="C7784112474.4" duration="10" until="120" /> 
        <stop busStop="C7784112474.5" duration="10" until="180" /> 
        <stop busStop="C7784112474.6" duration="10" until="240" /> 
        <stop busStop="C7784112474.7" duration="10" until="300" /> 
        <stop busStop="C7784112474.8" duration="10" until="360" /> 
        <stop busStop="C7784112474.9" duration="10" until="420" /> 
        <stop busStop="C7784112474.10" duration="10" until="480" /> 
        <stop busStop="C7784112474.11" duration="10" until="540" /> 
        <stop busStop="C7784112474.12" duration="10" until="600" /> 
        <stop busStop="C7784112474.13" duration="10" until="660" /> 
        <stop busStop="C7784112474.14" duration="10" until="720" /> 
        <stop busStop="C7784112474.15" duration="10" until="840" /> 
        <stop busStop="C7784112474.16" duration="10" until="1020" /> 
    </route>
    <route id="C7784112491" edges="39621951#1 55814662#1 44418919 367174177 375727352#1 355361274#0 355361274#1 410877036 390446271 1105018467 -410942555#0 -376574742#3 -376574742#2 -376574742#0 24302695#0 542954372#0 542954372#2 548596187 186562355#0 34879388 24302786#0 262231159#0 262231159#1 672712504 114067921#0 114067921#1 729258756 37390249#0 37390249#1 37390253#0 37390253#2 208789821 -114067941#4 -114067941#3 -114067941#2 -114067941#1 -114067941#0 -710531867#2 -710531867#1 -710531867#0 -710531865#3 -710531865#2 -710531865#1 -710531865#0 -16104654#3 -710531864#1 44418908#0 1225331317 187785191#0 187785191#1 647051335 208846939#0 208846939#1 208846939#2 208846939#4 208846939#5 106653932 710531857 710531855#0 710531855#1 710531855#2 710531855#3 106653934 710531853 878748703 545327323#0 545327323#1 545327323#2 710531850 858045130 16105282 858045129 710531849 292314093#0 292314093#1 44418910#0 44418910#1 16105228 42525298 456679759 879958382 42525291 22804218#1 710531848 44418909#0 44418909#1 44418909#2 363628729#0 363628729#1 710531847 363628728#0 363628728#1 363628728#2 363628728#3 363628728#4 25496997#0 25496997#1 25496997#2 25496997#3 25496997#4 25496998#0 25496998#1 668087049 94885901#0 94885901#1 857501710 -948499338#1 -963987209#1 -963987209#0 -1001994807">
        <stop busStop="C7784112474.16" duration="10" until="0" /> 
        <stop busStop="C7784112491.1" duration="10" until="120" /> 
        <stop busStop="C7784112491.2" duration="10" until="180" /> 
        <stop busStop="C7784112491.3" duration="10" until="240" /> 
        <stop busStop="C7784112491.4" duration="10" until="300" /> 
        <stop busStop="C7784112491.5" duration="10" until="420" /> 
        <stop busStop="C7784112491.6" duration="10" until="420" /> 
        <stop busStop="C7784112491.7" duration="10" until="480" /> 
        <stop busStop="C7784112491.8" duration="10" until="600" /> 
        <stop busStop="C7784112491.9" duration="10" until="660" /> 
        <stop busStop="C7784112491.10" duration="10" until="720" /> 
        <stop busStop="C7784112491.11" duration="10" until="780" /> 
        <stop busStop="C7784112491.12" duration="10" until="900" /> 
        <stop busStop="C7784112491.13" duration="10" until="960" /> 
        <stop busStop="C7784112491.14" duration="10" until="960" /> 
        <stop busStop="C7784112491.15" duration="10" until="1020" /> 
        <stop busStop="C7784112491.16" duration="10" until="1080" /> 
    </route>
    <route id="C7784112465" edges="1176083116 288117242#1 22773581#0 22773581#1 384788386#0 384788386#1 -292314093#4 -292314093#0 -710531849 -858045129 -16105282 -858045130 -710531850 -545327323#2 -545327323#1 -545327323#0 -878748703 -710531853 -106653934 -710531855#3 -710531855#2 -710531855#1 -710531855#0 -710531857 -106653932 -208846939#5 -208846939#4 -208846939#2 -208846939#1 -208846939#0 -647051335 -187785191#1 -187785191#0 -1225331317 -44418908#2 710531864#0 16104654#0 710531865#0 710531865#1 710531865#2 710531865#3 710531867#0 710531867#1 710531867#2 114067941#0 114067941#1 114067941#2 114067941#3 114067941#4 44418913 114067991#0 904662435 54724006#0 54724006#1 904662438#0 904662438#1 729258755 22804188#0 22804188#2 903794192 904662439 729258754 44418911#0 44418911#1 541318512 576448391#0 576448391#1 576448391#2 576448391#3 576448388 548596186#0 15005059#0 733025085#17 733025083 15009576 542954378#0 542954378#1 542954378#2 263642304#0 39621951#1">
        <stop busStop="C7784112465.0" duration="10" until="0" /> 
        <stop busStop="C7784112474.6" duration="10" until="60" /> 
        <stop busStop="C7784112474.7" duration="10" until="120" /> 
        <stop busStop="C7784112474.8" duration="10" until="180" /> 
        <stop busStop="C7784112474.9" duration="10" until="240" /> 
        <stop busStop="C7784112474.10" duration="10" until="300" /> 
        <stop busStop="C7784112474.11" duration="10" until="360" /> 
        <stop busStop="C7784112474.12" duration="10" until="420" /> 
        <stop busStop="C7784112474.13" duration="10" until="480" /> 
        <stop busStop="C7784112474.14" duration="10" until="540" /> 
        <stop busStop="C7784112474.15" duration="10" until="660" /> 
        <stop busStop="C7784112474.16" duration="10" until="840" /> 
    </route>
    <route id="C7784112476" edges="39621951#1 55814662#1 44418919 367174177 375727352#1 355361274#0 355361274#1 410877036 390446271 1105018467 -410942555#0 -376574742#3 -376574742#2 -376574742#0 24302695#0 542954372#0 542954372#2 548596187 186562355#0 34879388 24302786#0 262231159#0 262231159#1 672712504 114067921#0 114067921#1 729258756 37390249#0 37390249#1 37390253#0 37390253#2 208789821 -114067941#4 -114067941#3 -114067941#2 -114067941#1 -114067941#0 -710531867#2 -710531867#1 -710531867#0 -710531865#3 -710531865#2 -710531865#1 -710531865#0 -16104654#3 -710531864#1 44418908#0 1225331317 187785191#0 187785191#1 647051335 208846939#0 208846939#1 208846939#2 208846939#4 208846939#5 106653932 710531857 710531855#0 710531855#1 710531855#2 710531855#3 106653934 710531853 878748703 545327323#0 545327323#1 545327323#2 710531850 858045130 16105282 858045129 710531849 292314093#0 292314093#1 44418910#0 44418910#1 16105228 42525298 456679759 879958382">
        <stop busStop="C7784112474.16" duration="10" until="0" /> 
        <stop busStop="C7784112491.1" duration="10" until="180" /> 
        <stop busStop="C7784112491.2" duration="10" until="300" /> 
        <stop busStop="C7784112491.3" duration="10" until="360" /> 
        <stop busStop="C7784112491.4" duration="10" until="420" /> 
        <stop busStop="C7784112491.5" duration="10" until="540" /> 
        <stop busStop="C7784112491.6" duration="10" until="600" /> 
        <stop busStop="C7784112491.7" duration="10" until="660" /> 
        <stop busStop="C7784112491.8" duration="10" until="720" /> 
        <stop busStop="C7784112491.9" duration="10" until="780" /> 
        <stop busStop="C7784112491.10" duration="10" until="840" /> 
        <stop busStop="C7784112491.11" duration="10" until="900" /> 
    </route>
    <route id="C775941299" edges="333077887 34879393 56125188 292368600 34879392 385526033#0 385526033#1 -262072001 -260320959 -466518240#1 -466518240#0 -235326648#0 -545327335 -1214771012 -235899589#1 -235899589#0 -15006045#1 8034510#0 54517479 663253498 226318446#1 226318446#2 24013618 54517477">
        <stop busStop="C775941299.0" duration="10" until="0" /> 
        <stop busStop="C7810510.9" duration="10" until="60" /> 
        <stop busStop="C775941299.2" duration="10" until="180" /> 
    </route>
    <route id="C775941302" edges="-226318446#1 -226318446#0 -54517479 -8034510#1 15006045#0 235899589#0 235899589#1 1214771012 545327335 235326648#0 466518240#0 466518240#1 370634075 262072001 34879391 327165140#0 355361275#0 355361275#1 63946550 34879395 333924966#0 333924966#1 333077887">
        <stop busStop="C775941302.5" duration="10" until="0" /> 
        <stop busStop="C78105101.4" duration="10" until="60" /> 
        <stop busStop="C775941299.0" duration="10" until="300" /> 
    </route>
    <route id="C775941309" edges="333077887 34879393 56125188 292368600 34879392 385526033#0 385526033#1 -262072001 -260320959 -466518240#1 -466518240#0 -235326648#0 -545327335 -1214771012 -235899589#1 -235899589#0 -15006045#1 8034510#0 54517479 663253498 226318446#1 226318446#2 24013618 54517477">
        <stop busStop="C775941299.0" duration="10" until="0" /> 
        <stop busStop="C7810510.9" duration="10" until="60" /> 
        <stop busStop="C775941299.2" duration="10" until="180" /> 
    </route>
    <route id="C775941311" edges="-226318446#1 -226318446#0 -54517479 -8034510#1 15006045#0 235899589#0 235899589#1 1214771012 545327335 235326648#0 466518240#0 466518240#1 370634075 262072001 34879391 327165140#0 355361275#0 355361275#1 63946550 34879395 333924966#0 333924966#1 333077887">
        <stop busStop="C775941302.5" duration="10" until="0" /> 
        <stop busStop="C78105101.4" duration="10" until="60" /> 
        <stop busStop="C775941299.0" duration="10" until="300" /> 
    </route>
    <route id="C752221" edges="34879393 56125188 292368600 8034352 410912843 462384719#0 462384719#1 355361277#0 355361277#1 355361277#2 39621990 390446271 1105018467 56125183#1 265883959#0 487849995#0 487849995#1 487849995#2 -672712508#0 -25215157#4 -25215157#3 -25215157#2 -25215157#1 -25215157#0 34879388 24302786#0 262231159#0 262231159#1 672712504 25400361#1 120489628#0 120489628#1">
        <stop busStop="C752221.3" duration="10" until="0" /> 
        <stop busStop="C752221.4" duration="10" until="60" /> 
        <stop busStop="C752221.5" duration="10" until="120" /> 
        <stop busStop="C7784112491.1" duration="10" until="240" /> 
        <stop busStop="C752221.7" duration="10" until="300" /> 
    </route>
    <route id="C7522211" edges="120489628#1 114067948#0 114067948#1 207245316#0 207245316#1 207245316#2 207245316#3 207245316#4 114068033#0 114068033#1 114067976#0 114067976#1 235594744 55581542 114067994 114067941#0 114067941#1 114067941#2 114067941#3 114067941#4 44418913 114067991#0 904662435 54724006#0 54724006#1 904662438#0 904662438#1 729258755 22804188#0 22804188#2 903794192 904662439 729258754 44418911#0 44418911#1 541318512 576448391#0 576448391#1 576448391#2 576448391#3 672712512 184088846#0 672712509#1 25215157#1 25215157#2 25215157#3 25215157#4 672712508#0 -487849995#2 -487849995#1 -487849995#0 -265883959#0 -56125183#1 -376574743 344742907#0 410877035 355361272#0 355361272#1 355361272#2 355361272#3 63946550 34879395 333924966#0 333924966#1 370634074#0 541351411 350405303#0 350405303#1 350405303#2 350405303#3 310228992 23897339#0 23897339#1 516397653 50809659">
        <stop busStop="C752221.7" duration="10" until="0" /> 
        <stop busStop="C7522211.1" duration="10" until="60" /> 
        <stop busStop="C7522211.2" duration="10" until="120" /> 
        <stop busStop="C7522211.3" duration="10" until="300" /> 
        <stop busStop="C7522211.4" duration="10" until="300" /> 
        <stop busStop="C7522211.5" duration="10" until="360" /> 
        <stop busStop="C7784112474.14" duration="10" until="420" /> 
        <stop busStop="C7784112474.15" duration="10" until="480" /> 
        <stop busStop="C7522211.8" duration="10" until="600" /> 
        <stop busStop="C7522211.9" duration="10" until="600" /> 
        <stop busStop="C7522211.10" duration="10" until="780" /> 
        <stop busStop="C7522211.11" duration="10" until="840" /> 
    </route>
    <route id="C75222796" edges="120489628#1 114067948#0 114067948#1 207245316#0 207245316#1 207245316#2 207245316#3 207245316#4 114068033#0 114068033#1 114067976#0 114067976#1 235594744 55581542 114067994 114067941#0 114067941#1 114067941#2 114067941#3 114067941#4 44418913 114067991#0 904662435 54724006#0 54724006#1 904662438#0 904662438#1 729258755 22804188#0 22804188#2 903794192 904662439 729258754 44418911#0 44418911#1 541318512 576448391#0 576448391#1 576448391#2 576448391#3 672712512 184088846#0 672712509#1 25215157#1 25215157#2 25215157#3 25215157#4 672712508#0 -487849995#2 -487849995#1 -487849995#0 -265883959#0 -56125183#1 -376574743 344742907#0 410877035 355361272#0 355361272#1 355361272#2 355361272#3 63946550 34879395 333924966#0 333924966#1">
        <stop busStop="C752221.7" duration="10" until="0" /> 
        <stop busStop="C7522211.1" duration="10" until="0" /> 
        <stop busStop="C7522211.2" duration="10" until="60" /> 
        <stop busStop="C7522211.3" duration="10" until="300" /> 
        <stop busStop="C7522211.4" duration="10" until="300" /> 
        <stop busStop="C7522211.5" duration="10" until="360" /> 
        <stop busStop="C7784112474.14" duration="10" until="360" /> 
        <stop busStop="C7784112474.15" duration="10" until="420" /> 
        <stop busStop="C7522211.8" duration="10" until="480" /> 
        <stop busStop="C7522211.9" duration="10" until="540" /> 
        <stop busStop="C7522211.10" duration="10" until="660" /> 
    </route>
    <route id="C746661" edges="333924966#1 333077887 34879393 56125188 292368600 34879392 385526033#0 385526033#1 -262072001 -260320959 -466518240#1 -466518240#0 -235326648#0 -545327335 -1214771012 -235899589#1 -235899589#0 -15006045#1 8034510#0 54517479 663253498 226318446#1 226318446#2 -769406670 -265881986 -262231242#1 -8034520 32844329#0 32844329#2 -426316260#1 -426316260#0 -114067946#2 -114067946#1 -275987769#1 -620293826 -647051348#0 -306530475#1 -306530475#0 -306530474 -186562357 471073652 25400305#0 25400305#1 51261087 647051342#1 -25426723#2 -25426723#1 -25426723#0 639939969 -25426712#3 -25426712#2 -25426712#1 -25426712#0 639939962#0 639939962#1 647051333 36196558 208846939#0 208846939#1 208846939#2 208846939#4 208846939#5 106653932 710531857 710531855#0 710531855#1 710531855#2 710531855#3 106653934 710531853 878748703 545327323#0 545327323#1 545327323#2 710531850 858045130 16105282 858045129 710531849 292314093#0 292314093#1 44418910#0 44418910#1 16105228 42525298 456679759 879958382 42525291 22804218#1 710531848 44418909#0 44418909#1 44418909#2 25496967#0 25496967#1 817928162#0 817928162#1 363628732 527520856 94885894 363628730 363628731 43536270#0 43536270#1 43536270#2 43536270#3 43536270#4">
        <stop busStop="C7522211.10" duration="10" until="0" /> 
        <stop busStop="C7810510.8" duration="10" until="60" /> 
        <stop busStop="C7810510.9" duration="10" until="120" /> 
        <stop busStop="C746661.3" duration="10" until="180" /> 
        <stop busStop="C746661.4" duration="10" until="240" /> 
        <stop busStop="C746661.5" duration="10" until="360" /> 
        <stop busStop="C746661.6" duration="10" until="420" /> 
        <stop busStop="C7784112491.6" duration="10" until="480" /> 
        <stop busStop="C7784112491.7" duration="10" until="540" /> 
        <stop busStop="C7784112491.8" duration="10" until="600" /> 
        <stop busStop="C7784112491.9" duration="10" until="660" /> 
        <stop busStop="C7784112491.10" duration="10" until="720" /> 
        <stop busStop="C7784112491.11" duration="10" until="780" /> 
        <stop busStop="C746661.13" duration="10" until="900" /> 
        <stop busStop="C746661.14" duration="10" until="900" /> 
        <stop busStop="C746661.15" duration="10" until="960" /> 
        <stop busStop="C746661.16" duration="10" until="1020" /> 
    </route>
    <route id="C746662" edges="-43536270#3 -43536270#2 -43536270#1 -43536270#0 -363628731 -363628730 -94885894 25496976 -363628729#1 -363628729#0 -44418909#2 -44418909#1 -44418909#0 -710531848 53864763 1176083116 288117242#1 22773581#0 22773581#1 384788386#0 384788386#1 -292314093#4 -292314093#0 -710531849 -858045129 -16105282 -858045130 -710531850 -545327323#2 -545327323#1 -545327323#0 -878748703 -710531853 -106653934 -710531855#3 -710531855#2 -710531855#1 -710531855#0 -710531857 -106653932 -208846939#5 -208846939#4 -208846939#2 -208846939#1 -208846939#0 -36196558 -647051333 -639939962#1 -639939962#0 25426712#0 25426712#1 25426712#2 25426712#3 639939973 25426723#0 25426723#1 25426723#2 -647051342#1 -51261087 207245310#0 207245310#1 583332105 527867027 -471073652 186562357 186562358#0 306530475#0 306530475#1 207245317#1 620293826 275987769#0 114067946#0 114067946#2 426316260#0 426316260#1 648075904#0 648075904#1 648075907 769406670 -226318446#3 -226318446#1 -226318446#0 -54517479 -8034510#1 15006045#0 235899589#0 235899589#1 1214771012 545327335 235326648#0 466518240#0 466518240#1 370634075 262072001 34879391 327165140#0 355361275#0 355361275#1 63946550">
        <stop busStop="C746662.0" duration="10" until="0" /> 
        <stop busStop="C746662.1" duration="10" until="0" /> 
        <stop busStop="C7784112474.5" duration="10" until="120" /> 
        <stop busStop="C7784112474.6" duration="10" until="240" /> 
        <stop busStop="C7784112474.7" duration="10" until="300" /> 
        <stop busStop="C7784112474.8" duration="10" until="360" /> 
        <stop busStop="C7784112474.9" duration="10" until="420" /> 
        <stop busStop="C7784112474.10" duration="10" until="480" /> 
        <stop busStop="C746662.8" duration="10" until="540" /> 
        <stop busStop="C746662.9" duration="10" until="660" /> 
        <stop busStop="C746662.10" duration="10" until="780" /> 
        <stop busStop="C746662.11" duration="10" until="840" /> 
        <stop busStop="C775941302.5" duration="10" until="900" /> 
        <stop busStop="C78105101.4" duration="10" until="900" /> 
        <stop busStop="C78105101.5" duration="10" until="960" /> 
        <stop busStop="C746662.15" duration="10" until="1020" /> 
    </route>
    <route id="C742005631" edges="34879393 56125188 292368600 34879392 385526033#0 385526033#1 -262072001 -260320959 -466518240#1 -466518240#0 -235326648#0 -545327335 -1214771012 -235899589#1 -235899589#0 -15006045#1 8034510#0 54517479 663253498 226318446#1 226318446#2 24013618 54517477 114067942 310477204 -726865054 -504131740 -1250379833 -262072005#1 -291086096 -291086093 726865053#1">
        <stop busStop="C752221.3" duration="10" until="0" /> 
        <stop busStop="C7810510.8" duration="10" until="60" /> 
        <stop busStop="C7810510.9" duration="10" until="60" /> 
        <stop busStop="C742005631.3" duration="10" until="120" /> 
        <stop busStop="C742005631.4" duration="10" until="180" /> 
        <stop busStop="C742005631.5" duration="10" until="180" /> 
    </route>
    <route id="C742005644" edges="1021764183#0 291086093 291086096 262072005#1 1250379833 504131740 726865054 173007426 648075900 8034520 262231242#0 265881986 769406670 -226318446#3 -226318446#1 -226318446#0 -54517479 -8034510#1 15006045#0 235899589#0 235899589#1 1214771012 545327335 235326648#0 466518240#0 466518240#1 370634075 262072001 34879391 327165140#0 355361275#0 355361275#1 63946550 34879395 333924966#0 333924966#1">
        <stop busStop="C742005644.8" duration="10" until="0" /> 
        <stop busStop="C742005644.9" duration="10" until="60" /> 
        <stop busStop="C775941302.5" duration="10" until="180" /> 
        <stop busStop="C78105101.4" duration="10" until="180" /> 
        <stop busStop="C78105101.5" duration="10" until="240" /> 
        <stop busStop="C7522211.10" duration="10" until="360" /> 
    </route>
    <route id="C742006868.trimmed" edges="1021764183#0 291086093 291086096 262072005#1 1250379833 504131740 726865054 173007426 648075900 8034520 262231242#0 265881986 769406670 -226318446#3 -226318446#1 -226318446#0 -54517479 -8034510#1 15006045#0 235899589#0 235899589#1 1214771012 545327335 235326648#0 466518240#0 466518240#1 370634075 262072001 34879391 327165140#0 355361275#0 355361275#1 63946550 34879395 333924966#0 333924966#1">
        <stop busStop="C742005644.8" duration="10" until="0" /> 
        <stop busStop="C742005644.9" duration="10" until="60" /> 
        <stop busStop="C775941302.5" duration="10" until="120" /> 
        <stop busStop="C78105101.4" duration="10" until="180" /> 
        <stop busStop="C78105101.5" duration="10" until="180" /> 
        <stop busStop="C7522211.10" duration="10" until="300" /> 
    </route>
    <route id="C7726411" edges="-25406389#5 -25406389#4 -25406389#3 -25406389#2 -25406389#1 -25406389#0 -710531863 -36196567#2 -710531862#3 -710531862#0 -374531771#3 -374531771#2 -374531771#1 -374531771#0 -114067960#0 -374287472 -114077242#0 -25473497#6 -25473497#5 -25473497#4 -25473497#3 -25473497#2 -25473497#1 -25473497#0 25473497#0 94976297#1 94976297#3 -25482669 25482669 94976297#4 94976297#5 94976297#6 94976297#7 289801079#0 289801079#1 -207359134#5 -207359134#4 -207359134#2 -207359134#0 207359134#0 207359134#2 207359134#4 207359134#5 207359135 94976315 114068038 843903171 25449088#1 1062322405#0 1062322405#1 83822209 127553879 127553880#1 374287467#0 374287467#1 296903016 296903013#0 296903013#1 296903013#2 37390255#0 37390255#2 37390262#0 37390262#1 291933945 58601401#0 63682647 1079429057 58601371#2 -58601360#4 -58601360#3 -58601360#2 -58601360#1 -58601360#0 37390261#1 903767332 903769566#1 -54724003 22804457#1 22804457#3 729258755 22804188#0 22804188#2 903794192 904662439 729258754 44418911#0 44418911#1 541318512 576448391#0 576448391#1 576448391#2 576448391#3 576448388 548596186#0 15005059#0 733025085#17 733025083 15009576 542954378#0 542954378#1 542954378#2 263642304#0 39621951#1 55814662#1 44418919">
        <stop busStop="C7726411.0" duration="10" until="0" /> 
        <stop busStop="C7726411.1" duration="10" until="0" /> 
        <stop busStop="C7726411.2" duration="10" until="60" /> 
        <stop busStop="C7726411.3" duration="10" until="120" /> 
        <stop busStop="C7726411.4" duration="10" until="240" /> 
        <stop busStop="C7726411.5" duration="10" until="240" /> 
        <stop busStop="C7726411.6" duration="10" until="300" /> 
        <stop busStop="C7726411.7" duration="10" until="300" /> 
        <stop busStop="C7726411.8" duration="10" until="360" /> 
        <stop busStop="C7726411.9" duration="10" until="420" /> 
        <stop busStop="C7726411.10" duration="10" until="480" /> 
        <stop busStop="C7726411.11" duration="10" until="480" /> 
        <stop busStop="C7726411.12" duration="10" until="600" /> 
        <stop busStop="C7726411.13" duration="10" until="660" /> 
        <stop busStop="C7726411.14" duration="10" until="720" /> 
        <stop busStop="C7784112474.15" duration="10" until="780" /> 
        <stop busStop="C714201.9" duration="10" until="900" /> 
    </route>
    <route id="C77264125" edges="44418919 367174177 375727352#1 355361274#0 355361274#1 410877036 390446271 1105018467 56125183#1 265883959#0 487849995#0 487849995#1 487849995#2 -672712508#0 -25215157#4 -25215157#3 -25215157#2 -25215157#1 -25215157#0 34879388 24302786#0 262231159#0 262231159#1 672712504 114067921#0 114067921#1 729258756 37390249#0 37390249#1 37390251#0 430599213 54724005 904662436#0 54724003 903767331#1 903769568 903767336#1 58601360#0 58601360#1 58601360#2 58601360#3 58601360#4 58601382#0 -1079429057 -63682647 58601377#0 58601377#1 58601377#2 -296903013#2 -296903013#1 -296903013#0 -296903016 -374287467#1 -374287467#0 -883238238 -127553880#0 -83822209 -114068032 -37390256#2 -37390256#1 -37390256#0 1020862169 1020862168 -25406389#6 -25406389#5">
        <stop busStop="C77264125.0" duration="10" until="0" /> 
        <stop busStop="C752221.4" duration="10" until="120" /> 
        <stop busStop="C752221.5" duration="10" until="180" /> 
        <stop busStop="C7784112491.1" duration="10" until="300" /> 
        <stop busStop="C77264125.4" duration="10" until="420" /> 
        <stop busStop="C77264125.5" duration="10" until="540" /> 
        <stop busStop="C77264125.6" duration="10" until="600" /> 
        <stop busStop="C77264125.7" duration="10" until="660" /> 
        <stop busStop="C7726411.0" duration="10" until="720" /> 
    </route>
    <route id="C772642" edges="-127553880#0 -83822209 -114068032 -37390256#2 -37390256#1 -37390256#0 1020862169 1020862168 -25406389#6 -25406389#5">
        <stop busStop="C77264125.7" duration="10" until="0" /> 
        <stop busStop="C7726411.0" duration="10" until="60" /> 
    </route>